68070
exist
number
licens
philip
make
variant
chip
includ
extra
featurf
io
port
i2c
bu
make
microcontrol
like
confus
number
philip
product
rang
68
core
given
differend
number
like
pcf
pcd7
someth
